%Chk=sp                                                                         
%mem=30gb                                                                       
%nproc=8                                                                        
                                                                                
# MP2/aug-cc-pVDZ fchk units=bohr                                               
                                                                                
mp2 single point                                                                
                                                                                
0 1                                                                             
C           0.0000000842       -0.0000000562        0.0000000621
H           1.8418419368       -0.9027914074       -0.2291431262
H          -1.0942662699       -0.2189246250       -1.7362543709
H           0.2628669652        2.0078930230        0.3989923948
H          -1.0104436351       -0.8861763212        1.5664043629
He          6.5911946788        0.0000000000        0.0000000000
                                                                                
